* 
* Copyright (c) 1993 - 2021 ARM. All Rights Reserved
* This file has been provided pursuant to a License Agreement
* containing restrictions on its use.  This file contains valuable
* trade secrets and proprietary information of ARM,
* and is protected by patents, copyright law
* and international treaties
* 
* Generated by bif2cdl 3.19.0
* Version: r0p0
* Name: High Speed Single Port SRAM RVT MVT Compiler | 12LP 12nm Process 0.080um^2 Bit Cell
* Comment: 
* Configuration:  -activity_factor 50 -atf off -back_biasing off -b\
* Configuration: its 32 -bmux off -bus_notation on -c4obs off -chec\
* Configuration: k_instname off -diodes on -drive 6 -ema on -eol_gu\
* Configuration: ardband 0 -flexible_banking 4 -flexible_slice 2 -f\
* Configuration: requency 1.0 -instname gf12lp_1rw_lg12_w32_bit -le\
* Configuration: ft_bus_delim "[" -lren_bankmask off -mux 4 -mvt BA\
* Configuration: SE -name_case upper -pipeline off -power_gating of\
* Configuration: f -power_type otc -prefix "" -pwr_gnd_rename vddpe\
* Configuration: :VDDPE,vddce:VDDCE,vsse:VSSE -rcols 2 -redundancy \
* Configuration: off -retention on -right_bus_delim "]" -rrows 0 -s\
* Configuration: can off -ser none -site_def off -top_layer m5-m10 \
* Configuration: -vmin_assist off -words 4096 -write_mask on -write\
* Configuration: _thru off -corners ffpg_sigcmin_0p88v_0p88v_m40c,s\
* Configuration: spg_sigcmax_0p72v_0p72v_125c,tt_nominal_0p80v_0p80\
* Configuration: v_25c
* Codefile: 
* 
*
*.BIPOLAR
*.DIOAREA
*.DIOPERI
*
****
.SUBCKT gf12lp_1rw_lg12_w32_bitCC4_EDG VNWC VNWP VPW VSSE WL[0] WL[1]
** gf12lp_1rw_lg12_w32_bitCC4_EDG: 2 flat devices **
MI3.I1.MXNPGA I3.I1.EDGE_INT0 WL[0] VPW VPW lshnfetwl L=0.022U NF=1 NFIN=1
+  PTWELL=0 P_LA=0 CPP=0.084U FPITCH=0.048U TFIN=0.014U NGCON=1 PLORIENT=0
MI3.I54.MXNPGA I3.I54.EDGE_INT0 WL[1] VPW VPW lshnfetwl L=0.022U NF=1 NFIN=1
+  PTWELL=0 P_LA=0 CPP=0.084U FPITCH=0.048U TFIN=0.014U NGCON=1 PLORIENT=0
.ENDS gf12lp_1rw_lg12_w32_bitCC4_EDG
****
.SUBCKT gf12lp_1rw_lg12_w32_bitCC4WD_EDGBL VNWC VNWP VPW VSSE WL[0] WL[1]
** gf12lp_1rw_lg12_w32_bitCC4WD_EDGBL: 2 flat devices **
MI3.I1.MXNPGA I3.I1.EDGE_INT0 WL[0] VPW VPW lshnfetwl L=0.022U NF=1 NFIN=1
+  PTWELL=0 P_LA=0 CPP=0.084U FPITCH=0.048U TFIN=0.014U NGCON=1 PLORIENT=0
MI3.I54.MXNPGA I3.I54.EDGE_INT0 WL[1] VPW VPW lshnfetwl L=0.022U NF=1 NFIN=1
+  PTWELL=0 P_LA=0 CPP=0.084U FPITCH=0.048U TFIN=0.014U NGCON=1 PLORIENT=0
.ENDS gf12lp_1rw_lg12_w32_bitCC4WD_EDGBL
****
.SUBCKT gf12lp_1rw_lg12_w32_bitCC4_MB BL[0] BL[1] BL[2] BL[3] CORED00 CORED01
+  CORED10 CORED11 CORED20 CORED21 CORED30 CORED31 D0 D1 GWL[0] GWL[1] NBL[0]
+  NBL[1] NBL[2] NBL[3] NCORED00 NCORED01 NCORED10 NCORED11 NCORED20 NCORED21
+  NCORED30 NCORED31 Q0 Q1 Q2 Q3 VDDC0 VDDC1 VDDC2 VDDC3 VDDCE VDDPE VNWC VPW
+  VSS VSSE WEN0 WEN1 WL[0] WL[1]
** gf12lp_1rw_lg12_w32_bitCC4_MB: 48 flat devices **
MI26.I2.MXNPDA CORED01 NCORED01 VSSE VPW lshnfetpd L=0.022U NF=1 NFIN=2
+  PTWELL=0 P_LA=0 CPP=0.084U FPITCH=0.048U TFIN=0.014U NGCON=1 PLORIENT=0
MI26.I2.MXNPDB NCORED01 CORED01 VSSE VPW lshnfetpd L=0.022U NF=1 NFIN=2
+  PTWELL=0 P_LA=0 CPP=0.084U FPITCH=0.048U TFIN=0.014U NGCON=1 PLORIENT=0
MI26.I2.MXNPGA BL[0] WL[1] CORED01 VPW lshnfetwl L=0.022U NF=1 NFIN=2 PTWELL=0
+  P_LA=0 CPP=0.084U FPITCH=0.048U TFIN=0.014U NGCON=1 PLORIENT=0
MI26.I2.MXNPGB NCORED01 WL[1] NBL[0] VPW lshnfetwl L=0.022U NF=1 NFIN=2
+  PTWELL=0 P_LA=0 CPP=0.084U FPITCH=0.048U TFIN=0.014U NGCON=1 PLORIENT=0
MI26.I2.MXPPUA CORED01 NCORED01 VDDC0 VNWC lshpfetpu L=0.022U NF=1 NFIN=1
+  PTWELL=0 P_LA=0 CPP=0.084U FPITCH=0.048U TFIN=0.014U NGCON=1 PLORIENT=0
MI26.I2.MXPPUB NCORED01 CORED01 VDDC0 VNWC lshpfetpu L=0.022U NF=1 NFIN=1
+  PTWELL=0 P_LA=0 CPP=0.084U FPITCH=0.048U TFIN=0.014U NGCON=1 PLORIENT=0
MI27.I2.MXNPDA CORED00 NCORED00 VSSE VPW lshnfetpd L=0.022U NF=1 NFIN=2
+  PTWELL=0 P_LA=0 CPP=0.084U FPITCH=0.048U TFIN=0.014U NGCON=1 PLORIENT=0
MI27.I2.MXNPDB NCORED00 CORED00 VSSE VPW lshnfetpd L=0.022U NF=1 NFIN=2
+  PTWELL=0 P_LA=0 CPP=0.084U FPITCH=0.048U TFIN=0.014U NGCON=1 PLORIENT=0
MI27.I2.MXNPGA BL[0] WL[0] CORED00 VPW lshnfetwl L=0.022U NF=1 NFIN=2 PTWELL=0
+  P_LA=0 CPP=0.084U FPITCH=0.048U TFIN=0.014U NGCON=1 PLORIENT=0
MI27.I2.MXNPGB NCORED00 WL[0] NBL[0] VPW lshnfetwl L=0.022U NF=1 NFIN=2
+  PTWELL=0 P_LA=0 CPP=0.084U FPITCH=0.048U TFIN=0.014U NGCON=1 PLORIENT=0
MI27.I2.MXPPUA CORED00 NCORED00 VDDC0 VNWC lshpfetpu L=0.022U NF=1 NFIN=1
+  PTWELL=0 P_LA=0 CPP=0.084U FPITCH=0.048U TFIN=0.014U NGCON=1 PLORIENT=0
MI27.I2.MXPPUB NCORED00 CORED00 VDDC0 VNWC lshpfetpu L=0.022U NF=1 NFIN=1
+  PTWELL=0 P_LA=0 CPP=0.084U FPITCH=0.048U TFIN=0.014U NGCON=1 PLORIENT=0
MI28.I2.MXNPDA CORED11 NCORED11 VSSE VPW lshnfetpd L=0.022U NF=1 NFIN=2
+  PTWELL=0 P_LA=0 CPP=0.084U FPITCH=0.048U TFIN=0.014U NGCON=1 PLORIENT=0
MI28.I2.MXNPDB NCORED11 CORED11 VSSE VPW lshnfetpd L=0.022U NF=1 NFIN=2
+  PTWELL=0 P_LA=0 CPP=0.084U FPITCH=0.048U TFIN=0.014U NGCON=1 PLORIENT=0
MI28.I2.MXNPGA BL[1] WL[1] CORED11 VPW lshnfetwl L=0.022U NF=1 NFIN=2 PTWELL=0
+  P_LA=0 CPP=0.084U FPITCH=0.048U TFIN=0.014U NGCON=1 PLORIENT=0
MI28.I2.MXNPGB NCORED11 WL[1] NBL[1] VPW lshnfetwl L=0.022U NF=1 NFIN=2
+  PTWELL=0 P_LA=0 CPP=0.084U FPITCH=0.048U TFIN=0.014U NGCON=1 PLORIENT=0
MI28.I2.MXPPUA CORED11 NCORED11 VDDC1 VNWC lshpfetpu L=0.022U NF=1 NFIN=1
+  PTWELL=0 P_LA=0 CPP=0.084U FPITCH=0.048U TFIN=0.014U NGCON=1 PLORIENT=0
MI28.I2.MXPPUB NCORED11 CORED11 VDDC1 VNWC lshpfetpu L=0.022U NF=1 NFIN=1
+  PTWELL=0 P_LA=0 CPP=0.084U FPITCH=0.048U TFIN=0.014U NGCON=1 PLORIENT=0
MI29.I2.MXNPDA CORED10 NCORED10 VSSE VPW lshnfetpd L=0.022U NF=1 NFIN=2
+  PTWELL=0 P_LA=0 CPP=0.084U FPITCH=0.048U TFIN=0.014U NGCON=1 PLORIENT=0
MI29.I2.MXNPDB NCORED10 CORED10 VSSE VPW lshnfetpd L=0.022U NF=1 NFIN=2
+  PTWELL=0 P_LA=0 CPP=0.084U FPITCH=0.048U TFIN=0.014U NGCON=1 PLORIENT=0
MI29.I2.MXNPGA BL[1] WL[0] CORED10 VPW lshnfetwl L=0.022U NF=1 NFIN=2 PTWELL=0
+  P_LA=0 CPP=0.084U FPITCH=0.048U TFIN=0.014U NGCON=1 PLORIENT=0
MI29.I2.MXNPGB NCORED10 WL[0] NBL[1] VPW lshnfetwl L=0.022U NF=1 NFIN=2
+  PTWELL=0 P_LA=0 CPP=0.084U FPITCH=0.048U TFIN=0.014U NGCON=1 PLORIENT=0
MI29.I2.MXPPUA CORED10 NCORED10 VDDC1 VNWC lshpfetpu L=0.022U NF=1 NFIN=1
+  PTWELL=0 P_LA=0 CPP=0.084U FPITCH=0.048U TFIN=0.014U NGCON=1 PLORIENT=0
MI29.I2.MXPPUB NCORED10 CORED10 VDDC1 VNWC lshpfetpu L=0.022U NF=1 NFIN=1
+  PTWELL=0 P_LA=0 CPP=0.084U FPITCH=0.048U TFIN=0.014U NGCON=1 PLORIENT=0
MI30.I2.MXNPDA CORED21 NCORED21 VSSE VPW lshnfetpd L=0.022U NF=1 NFIN=2
+  PTWELL=0 P_LA=0 CPP=0.084U FPITCH=0.048U TFIN=0.014U NGCON=1 PLORIENT=0
MI30.I2.MXNPDB NCORED21 CORED21 VSSE VPW lshnfetpd L=0.022U NF=1 NFIN=2
+  PTWELL=0 P_LA=0 CPP=0.084U FPITCH=0.048U TFIN=0.014U NGCON=1 PLORIENT=0
MI30.I2.MXNPGA BL[2] WL[1] CORED21 VPW lshnfetwl L=0.022U NF=1 NFIN=2 PTWELL=0
+  P_LA=0 CPP=0.084U FPITCH=0.048U TFIN=0.014U NGCON=1 PLORIENT=0
MI30.I2.MXNPGB NCORED21 WL[1] NBL[2] VPW lshnfetwl L=0.022U NF=1 NFIN=2
+  PTWELL=0 P_LA=0 CPP=0.084U FPITCH=0.048U TFIN=0.014U NGCON=1 PLORIENT=0
MI30.I2.MXPPUA CORED21 NCORED21 VDDC2 VNWC lshpfetpu L=0.022U NF=1 NFIN=1
+  PTWELL=0 P_LA=0 CPP=0.084U FPITCH=0.048U TFIN=0.014U NGCON=1 PLORIENT=0
MI30.I2.MXPPUB NCORED21 CORED21 VDDC2 VNWC lshpfetpu L=0.022U NF=1 NFIN=1
+  PTWELL=0 P_LA=0 CPP=0.084U FPITCH=0.048U TFIN=0.014U NGCON=1 PLORIENT=0
MI31.I2.MXNPDA CORED20 NCORED20 VSSE VPW lshnfetpd L=0.022U NF=1 NFIN=2
+  PTWELL=0 P_LA=0 CPP=0.084U FPITCH=0.048U TFIN=0.014U NGCON=1 PLORIENT=0
MI31.I2.MXNPDB NCORED20 CORED20 VSSE VPW lshnfetpd L=0.022U NF=1 NFIN=2
+  PTWELL=0 P_LA=0 CPP=0.084U FPITCH=0.048U TFIN=0.014U NGCON=1 PLORIENT=0
MI31.I2.MXNPGA BL[2] WL[0] CORED20 VPW lshnfetwl L=0.022U NF=1 NFIN=2 PTWELL=0
+  P_LA=0 CPP=0.084U FPITCH=0.048U TFIN=0.014U NGCON=1 PLORIENT=0
MI31.I2.MXNPGB NCORED20 WL[0] NBL[2] VPW lshnfetwl L=0.022U NF=1 NFIN=2
+  PTWELL=0 P_LA=0 CPP=0.084U FPITCH=0.048U TFIN=0.014U NGCON=1 PLORIENT=0
MI31.I2.MXPPUA CORED20 NCORED20 VDDC2 VNWC lshpfetpu L=0.022U NF=1 NFIN=1
+  PTWELL=0 P_LA=0 CPP=0.084U FPITCH=0.048U TFIN=0.014U NGCON=1 PLORIENT=0
MI31.I2.MXPPUB NCORED20 CORED20 VDDC2 VNWC lshpfetpu L=0.022U NF=1 NFIN=1
+  PTWELL=0 P_LA=0 CPP=0.084U FPITCH=0.048U TFIN=0.014U NGCON=1 PLORIENT=0
MI32.I2.MXNPDA CORED31 NCORED31 VSSE VPW lshnfetpd L=0.022U NF=1 NFIN=2
+  PTWELL=0 P_LA=0 CPP=0.084U FPITCH=0.048U TFIN=0.014U NGCON=1 PLORIENT=0
MI32.I2.MXNPDB NCORED31 CORED31 VSSE VPW lshnfetpd L=0.022U NF=1 NFIN=2
+  PTWELL=0 P_LA=0 CPP=0.084U FPITCH=0.048U TFIN=0.014U NGCON=1 PLORIENT=0
MI32.I2.MXNPGA BL[3] WL[1] CORED31 VPW lshnfetwl L=0.022U NF=1 NFIN=2 PTWELL=0
+  P_LA=0 CPP=0.084U FPITCH=0.048U TFIN=0.014U NGCON=1 PLORIENT=0
MI32.I2.MXNPGB NCORED31 WL[1] NBL[3] VPW lshnfetwl L=0.022U NF=1 NFIN=2
+  PTWELL=0 P_LA=0 CPP=0.084U FPITCH=0.048U TFIN=0.014U NGCON=1 PLORIENT=0
MI32.I2.MXPPUA CORED31 NCORED31 VDDC3 VNWC lshpfetpu L=0.022U NF=1 NFIN=1
+  PTWELL=0 P_LA=0 CPP=0.084U FPITCH=0.048U TFIN=0.014U NGCON=1 PLORIENT=0
MI32.I2.MXPPUB NCORED31 CORED31 VDDC3 VNWC lshpfetpu L=0.022U NF=1 NFIN=1
+  PTWELL=0 P_LA=0 CPP=0.084U FPITCH=0.048U TFIN=0.014U NGCON=1 PLORIENT=0
MI33.I2.MXNPDA CORED30 NCORED30 VSSE VPW lshnfetpd L=0.022U NF=1 NFIN=2
+  PTWELL=0 P_LA=0 CPP=0.084U FPITCH=0.048U TFIN=0.014U NGCON=1 PLORIENT=0
MI33.I2.MXNPDB NCORED30 CORED30 VSSE VPW lshnfetpd L=0.022U NF=1 NFIN=2
+  PTWELL=0 P_LA=0 CPP=0.084U FPITCH=0.048U TFIN=0.014U NGCON=1 PLORIENT=0
MI33.I2.MXNPGA BL[3] WL[0] CORED30 VPW lshnfetwl L=0.022U NF=1 NFIN=2 PTWELL=0
+  P_LA=0 CPP=0.084U FPITCH=0.048U TFIN=0.014U NGCON=1 PLORIENT=0
MI33.I2.MXNPGB NCORED30 WL[0] NBL[3] VPW lshnfetwl L=0.022U NF=1 NFIN=2
+  PTWELL=0 P_LA=0 CPP=0.084U FPITCH=0.048U TFIN=0.014U NGCON=1 PLORIENT=0
MI33.I2.MXPPUA CORED30 NCORED30 VDDC3 VNWC lshpfetpu L=0.022U NF=1 NFIN=1
+  PTWELL=0 P_LA=0 CPP=0.084U FPITCH=0.048U TFIN=0.014U NGCON=1 PLORIENT=0
MI33.I2.MXPPUB NCORED30 CORED30 VDDC3 VNWC lshpfetpu L=0.022U NF=1 NFIN=1
+  PTWELL=0 P_LA=0 CPP=0.084U FPITCH=0.048U TFIN=0.014U NGCON=1 PLORIENT=0
.ENDS gf12lp_1rw_lg12_w32_bitCC4_MB
****
.SUBCKT gf12lp_1rw_lg12_w32_bitMEM_2X4L_ROW0 BL[0]_0 BL[0]_1 BL[0]_2 BL[0]_3
+  BL[0]_4 BL[0]_5 BL[0]_6 BL[0]_7 BL[0]_8 BL[0]_9 BL[0]_10 BL[0]_11 BL[0]_12
+  BL[0]_13 BL[0]_14 BL[0]_15 BL[1]_0 BL[1]_1 BL[1]_2 BL[1]_3 BL[1]_4 BL[1]_5
+  BL[1]_6 BL[1]_7 BL[1]_8 BL[1]_9 BL[1]_10 BL[1]_11 BL[1]_12 BL[1]_13
+  BL[1]_14 BL[1]_15 BL[2]_0 BL[2]_1 BL[2]_2 BL[2]_3 BL[2]_4 BL[2]_5 BL[2]_6
+  BL[2]_7 BL[2]_8 BL[2]_9 BL[2]_10 BL[2]_11 BL[2]_12 BL[2]_13 BL[2]_14
+  BL[2]_15 BL[3]_0 BL[3]_1 BL[3]_2 BL[3]_3 BL[3]_4 BL[3]_5 BL[3]_6 BL[3]_7
+  BL[3]_8 BL[3]_9 BL[3]_10 BL[3]_11 BL[3]_12 BL[3]_13 BL[3]_14 BL[3]_15 D0_0
+  D0_1 D0_2 D0_3 D0_4 D0_5 D0_6 D0_7 D0_8 D0_9 D0_10 D0_11 D0_12 D0_13 D0_14
+  D0_15 D1_0 D1_1 D1_2 D1_3 D1_4 D1_5 D1_6 D1_7 D1_8 D1_9 D1_10 D1_11 D1_12
+  D1_13 D1_14 D1_15 NBL[0]_0 NBL[0]_1 NBL[0]_2 NBL[0]_3 NBL[0]_4 NBL[0]_5
+  NBL[0]_6 NBL[0]_7 NBL[0]_8 NBL[0]_9 NBL[0]_10 NBL[0]_11 NBL[0]_12 NBL[0]_13
+  NBL[0]_14 NBL[0]_15 NBL[1]_0 NBL[1]_1 NBL[1]_2 NBL[1]_3 NBL[1]_4 NBL[1]_5
+  NBL[1]_6 NBL[1]_7 NBL[1]_8 NBL[1]_9 NBL[1]_10 NBL[1]_11 NBL[1]_12 NBL[1]_13
+  NBL[1]_14 NBL[1]_15 NBL[2]_0 NBL[2]_1 NBL[2]_2 NBL[2]_3 NBL[2]_4 NBL[2]_5
+  NBL[2]_6 NBL[2]_7 NBL[2]_8 NBL[2]_9 NBL[2]_10 NBL[2]_11 NBL[2]_12 NBL[2]_13
+  NBL[2]_14 NBL[2]_15 NBL[3]_0 NBL[3]_1 NBL[3]_2 NBL[3]_3 NBL[3]_4 NBL[3]_5
+  NBL[3]_6 NBL[3]_7 NBL[3]_8 NBL[3]_9 NBL[3]_10 NBL[3]_11 NBL[3]_12 NBL[3]_13
+  NBL[3]_14 NBL[3]_15 Q0_0 Q0_1 Q0_2 Q0_3 Q0_4 Q0_5 Q0_6 Q0_7 Q0_8 Q0_9 Q0_10
+  Q0_11 Q0_12 Q0_13 Q0_14 Q0_15 Q1_0 Q1_1 Q1_2 Q1_3 Q1_4 Q1_5 Q1_6 Q1_7 Q1_8
+  Q1_9 Q1_10 Q1_11 Q1_12 Q1_13 Q1_14 Q1_15 Q2_0 Q2_1 Q2_2 Q2_3 Q2_4 Q2_5 Q2_6
+  Q2_7 Q2_8 Q2_9 Q2_10 Q2_11 Q2_12 Q2_13 Q2_14 Q2_15 Q3_0 Q3_1 Q3_2 Q3_3 Q3_4
+  Q3_5 Q3_6 Q3_7 Q3_8 Q3_9 Q3_10 Q3_11 Q3_12 Q3_13 Q3_14 Q3_15 VDDC0_0
+  VDDC0_1 VDDC0_2 VDDC0_3 VDDC0_4 VDDC0_5 VDDC0_6 VDDC0_7 VDDC0_8 VDDC0_9
+  VDDC0_10 VDDC0_11 VDDC0_12 VDDC0_13 VDDC0_14 VDDC0_15 VDDC1_0 VDDC1_1
+  VDDC1_2 VDDC1_3 VDDC1_4 VDDC1_5 VDDC1_6 VDDC1_7 VDDC1_8 VDDC1_9 VDDC1_10
+  VDDC1_11 VDDC1_12 VDDC1_13 VDDC1_14 VDDC1_15 VDDC2_0 VDDC2_1 VDDC2_2
+  VDDC2_3 VDDC2_4 VDDC2_5 VDDC2_6 VDDC2_7 VDDC2_8 VDDC2_9 VDDC2_10 VDDC2_11
+  VDDC2_12 VDDC2_13 VDDC2_14 VDDC2_15 VDDC3_0 VDDC3_1 VDDC3_2 VDDC3_3 VDDC3_4
+  VDDC3_5 VDDC3_6 VDDC3_7 VDDC3_8 VDDC3_9 VDDC3_10 VDDC3_11 VDDC3_12 VDDC3_13
+  VDDC3_14 VDDC3_15 VDDCE_0 VDDCE_1 VDDCE_2 VDDCE_3 VDDCE_4 VDDCE_5 VDDCE_6
+  VDDCE_7 VDDCE_8 VDDCE_9 VDDCE_10 VDDCE_11 VDDCE_12 VDDCE_13 VDDCE_14
+  VDDCE_15 VDDPE_0 VDDPE_1 VDDPE_2 VDDPE_3 VDDPE_4 VDDPE_5 VDDPE_6 VDDPE_7
+  VDDPE_8 VDDPE_9 VDDPE_10 VDDPE_11 VDDPE_12 VDDPE_13 VDDPE_14 VDDPE_15
+  VNWC_0 VNWC_1 VNWC_2 VNWC_3 VNWC_4 VNWC_5 VNWC_6 VNWC_7 VNWC_8 VNWC_9
+  VNWC_10 VNWC_11 VNWC_12 VNWC_13 VNWC_14 VNWC_15 VNWC_16 VNWC_17 VNWP_0
+  VNWP_1 VPW_0 VPW_1 VPW_2 VPW_3 VPW_4 VPW_5 VPW_6 VPW_7 VPW_8 VPW_9 VPW_10
+  VPW_11 VPW_12 VPW_13 VPW_14 VPW_15 VSSE VSS_0 VSS_1 VSS_2 VSS_3 VSS_4 VSS_5
+  VSS_6 VSS_7 VSS_8 VSS_9 VSS_10 VSS_11 VSS_12 VSS_13 VSS_14 VSS_15 WEN0_0
+  WEN0_1 WEN0_2 WEN0_3 WEN0_4 WEN0_5 WEN0_6 WEN0_7 WEN0_8 WEN0_9 WEN0_10
+  WEN0_11 WEN0_12 WEN0_13 WEN0_14 WEN0_15 WEN1_0 WEN1_1 WEN1_2 WEN1_3 WEN1_4
+  WEN1_5 WEN1_6 WEN1_7 WEN1_8 WEN1_9 WEN1_10 WEN1_11 WEN1_12 WEN1_13 WEN1_14
+  WEN1_15 WL[0] WL[1]
** gf12lp_1rw_lg12_w32_bitMEM_2X4L_ROW0: 772 flat devices **
XMEM_L_COL_0 BL[0]_0 BL[1]_0 BL[2]_0 BL[3]_0 CORED00 CORED01 CORED10 CORED11
+  CORED20 CORED21 CORED30 CORED31 D0_0 D1_0 WL[0] WL[1] NBL[0]_0 NBL[1]_0
+  NBL[2]_0 NBL[3]_0 NCORED00 NCORED01 NCORED10 NCORED11 NCORED20 NCORED21
+  NCORED30 NCORED31 Q0_0 Q1_0 Q2_0 Q3_0 VDDC0_0 VDDC1_0 VDDC2_0 VDDC3_0
+  VDDCE_0 VDDPE_0 VNWC_1 VPW_0 VSS_0 VSSE WEN0_0 WEN1_0 WL[0] WL[1]
+  gf12lp_1rw_lg12_w32_bitCC4_MB
XMEM_L_COL_1 BL[0]_1 BL[1]_1 BL[2]_1 BL[3]_1 CORED00_16 CORED01_18 CORED10_20
+  CORED11_22 CORED20_24 CORED21_26 CORED30_28 CORED31_30 D0_1 D1_1 WL[0]
+  WL[1] NBL[0]_1 NBL[1]_1 NBL[2]_1 NBL[3]_1 NCORED00_32 NCORED01_34
+  NCORED10_36 NCORED11_38 NCORED20_40 NCORED21_42 NCORED30_44 NCORED31_46
+  Q0_1 Q1_1 Q2_1 Q3_1 VDDC0_1 VDDC1_1 VDDC2_1 VDDC3_1 VDDCE_1 VDDPE_1 VNWC_2
+  VPW_1 VSS_1 VSSE WEN0_1 WEN1_1 WL[0] WL[1] gf12lp_1rw_lg12_w32_bitCC4_MB
XMEM_L_COL_10 BL[0]_10 BL[1]_10 BL[2]_10 BL[3]_10 CORED00_304 CORED01_306
+  CORED10_308 CORED11_310 CORED20_312 CORED21_314 CORED30_316 CORED31_318
+  D0_10 D1_10 WL[0] WL[1] NBL[0]_10 NBL[1]_10 NBL[2]_10 NBL[3]_10
+  NCORED00_320 NCORED01_322 NCORED10_324 NCORED11_326 NCORED20_328
+  NCORED21_330 NCORED30_332 NCORED31_334 Q0_10 Q1_10 Q2_10 Q3_10 VDDC0_10
+  VDDC1_10 VDDC2_10 VDDC3_10 VDDCE_10 VDDPE_10 VNWC_11 VPW_10 VSS_10 VSSE
+  WEN0_10 WEN1_10 WL[0] WL[1] gf12lp_1rw_lg12_w32_bitCC4_MB
XMEM_L_COL_11 BL[0]_11 BL[1]_11 BL[2]_11 BL[3]_11 CORED00_336 CORED01_338
+  CORED10_340 CORED11_342 CORED20_344 CORED21_346 CORED30_348 CORED31_350
+  D0_11 D1_11 WL[0] WL[1] NBL[0]_11 NBL[1]_11 NBL[2]_11 NBL[3]_11
+  NCORED00_352 NCORED01_354 NCORED10_356 NCORED11_358 NCORED20_360
+  NCORED21_362 NCORED30_364 NCORED31_366 Q0_11 Q1_11 Q2_11 Q3_11 VDDC0_11
+  VDDC1_11 VDDC2_11 VDDC3_11 VDDCE_11 VDDPE_11 VNWC_12 VPW_11 VSS_11 VSSE
+  WEN0_11 WEN1_11 WL[0] WL[1] gf12lp_1rw_lg12_w32_bitCC4_MB
XMEM_L_COL_12 BL[0]_12 BL[1]_12 BL[2]_12 BL[3]_12 CORED00_368 CORED01_370
+  CORED10_372 CORED11_374 CORED20_376 CORED21_378 CORED30_380 CORED31_382
+  D0_12 D1_12 WL[0] WL[1] NBL[0]_12 NBL[1]_12 NBL[2]_12 NBL[3]_12
+  NCORED00_384 NCORED01_386 NCORED10_388 NCORED11_390 NCORED20_392
+  NCORED21_394 NCORED30_396 NCORED31_398 Q0_12 Q1_12 Q2_12 Q3_12 VDDC0_12
+  VDDC1_12 VDDC2_12 VDDC3_12 VDDCE_12 VDDPE_12 VNWC_13 VPW_12 VSS_12 VSSE
+  WEN0_12 WEN1_12 WL[0] WL[1] gf12lp_1rw_lg12_w32_bitCC4_MB
XMEM_L_COL_13 BL[0]_13 BL[1]_13 BL[2]_13 BL[3]_13 CORED00_400 CORED01_402
+  CORED10_404 CORED11_406 CORED20_408 CORED21_410 CORED30_412 CORED31_414
+  D0_13 D1_13 WL[0] WL[1] NBL[0]_13 NBL[1]_13 NBL[2]_13 NBL[3]_13
+  NCORED00_416 NCORED01_418 NCORED10_420 NCORED11_422 NCORED20_424
+  NCORED21_426 NCORED30_428 NCORED31_430 Q0_13 Q1_13 Q2_13 Q3_13 VDDC0_13
+  VDDC1_13 VDDC2_13 VDDC3_13 VDDCE_13 VDDPE_13 VNWC_14 VPW_13 VSS_13 VSSE
+  WEN0_13 WEN1_13 WL[0] WL[1] gf12lp_1rw_lg12_w32_bitCC4_MB
XMEM_L_COL_14 BL[0]_14 BL[1]_14 BL[2]_14 BL[3]_14 CORED00_432 CORED01_434
+  CORED10_436 CORED11_438 CORED20_440 CORED21_442 CORED30_444 CORED31_446
+  D0_14 D1_14 WL[0] WL[1] NBL[0]_14 NBL[1]_14 NBL[2]_14 NBL[3]_14
+  NCORED00_448 NCORED01_450 NCORED10_452 NCORED11_454 NCORED20_456
+  NCORED21_458 NCORED30_460 NCORED31_462 Q0_14 Q1_14 Q2_14 Q3_14 VDDC0_14
+  VDDC1_14 VDDC2_14 VDDC3_14 VDDCE_14 VDDPE_14 VNWC_15 VPW_14 VSS_14 VSSE
+  WEN0_14 WEN1_14 WL[0] WL[1] gf12lp_1rw_lg12_w32_bitCC4_MB
XMEM_L_COL_15 BL[0]_15 BL[1]_15 BL[2]_15 BL[3]_15 CORED00_464 CORED01_466
+  CORED10_468 CORED11_470 CORED20_472 CORED21_474 CORED30_476 CORED31_478
+  D0_15 D1_15 WL[0] WL[1] NBL[0]_15 NBL[1]_15 NBL[2]_15 NBL[3]_15
+  NCORED00_480 NCORED01_482 NCORED10_484 NCORED11_486 NCORED20_488
+  NCORED21_490 NCORED30_492 NCORED31_494 Q0_15 Q1_15 Q2_15 Q3_15 VDDC0_15
+  VDDC1_15 VDDC2_15 VDDC3_15 VDDCE_15 VDDPE_15 VNWC_16 VPW_15 VSS_15 VSSE
+  WEN0_15 WEN1_15 WL[0] WL[1] gf12lp_1rw_lg12_w32_bitCC4_MB
XMEM_L_COL_2 BL[0]_2 BL[1]_2 BL[2]_2 BL[3]_2 CORED00_48 CORED01_50 CORED10_52
+  CORED11_54 CORED20_56 CORED21_58 CORED30_60 CORED31_62 D0_2 D1_2 WL[0]
+  WL[1] NBL[0]_2 NBL[1]_2 NBL[2]_2 NBL[3]_2 NCORED00_64 NCORED01_66
+  NCORED10_68 NCORED11_70 NCORED20_72 NCORED21_74 NCORED30_76 NCORED31_78
+  Q0_2 Q1_2 Q2_2 Q3_2 VDDC0_2 VDDC1_2 VDDC2_2 VDDC3_2 VDDCE_2 VDDPE_2 VNWC_3
+  VPW_2 VSS_2 VSSE WEN0_2 WEN1_2 WL[0] WL[1] gf12lp_1rw_lg12_w32_bitCC4_MB
XMEM_L_COL_3 BL[0]_3 BL[1]_3 BL[2]_3 BL[3]_3 CORED00_80 CORED01_82 CORED10_84
+  CORED11_86 CORED20_88 CORED21_90 CORED30_92 CORED31_94 D0_3 D1_3 WL[0]
+  WL[1] NBL[0]_3 NBL[1]_3 NBL[2]_3 NBL[3]_3 NCORED00_96 NCORED01_98
+  NCORED10_100 NCORED11_102 NCORED20_104 NCORED21_106 NCORED30_108
+  NCORED31_110 Q0_3 Q1_3 Q2_3 Q3_3 VDDC0_3 VDDC1_3 VDDC2_3 VDDC3_3 VDDCE_3
+  VDDPE_3 VNWC_4 VPW_3 VSS_3 VSSE WEN0_3 WEN1_3 WL[0] WL[1]
+  gf12lp_1rw_lg12_w32_bitCC4_MB
XMEM_L_COL_4 BL[0]_4 BL[1]_4 BL[2]_4 BL[3]_4 CORED00_112 CORED01_114
+  CORED10_116 CORED11_118 CORED20_120 CORED21_122 CORED30_124 CORED31_126
+  D0_4 D1_4 WL[0] WL[1] NBL[0]_4 NBL[1]_4 NBL[2]_4 NBL[3]_4 NCORED00_128
+  NCORED01_130 NCORED10_132 NCORED11_134 NCORED20_136 NCORED21_138
+  NCORED30_140 NCORED31_142 Q0_4 Q1_4 Q2_4 Q3_4 VDDC0_4 VDDC1_4 VDDC2_4
+  VDDC3_4 VDDCE_4 VDDPE_4 VNWC_5 VPW_4 VSS_4 VSSE WEN0_4 WEN1_4 WL[0] WL[1]
+  gf12lp_1rw_lg12_w32_bitCC4_MB
XMEM_L_COL_5 BL[0]_5 BL[1]_5 BL[2]_5 BL[3]_5 CORED00_144 CORED01_146
+  CORED10_148 CORED11_150 CORED20_152 CORED21_154 CORED30_156 CORED31_158
+  D0_5 D1_5 WL[0] WL[1] NBL[0]_5 NBL[1]_5 NBL[2]_5 NBL[3]_5 NCORED00_160
+  NCORED01_162 NCORED10_164 NCORED11_166 NCORED20_168 NCORED21_170
+  NCORED30_172 NCORED31_174 Q0_5 Q1_5 Q2_5 Q3_5 VDDC0_5 VDDC1_5 VDDC2_5
+  VDDC3_5 VDDCE_5 VDDPE_5 VNWC_6 VPW_5 VSS_5 VSSE WEN0_5 WEN1_5 WL[0] WL[1]
+  gf12lp_1rw_lg12_w32_bitCC4_MB
XMEM_L_COL_6 BL[0]_6 BL[1]_6 BL[2]_6 BL[3]_6 CORED00_176 CORED01_178
+  CORED10_180 CORED11_182 CORED20_184 CORED21_186 CORED30_188 CORED31_190
+  D0_6 D1_6 WL[0] WL[1] NBL[0]_6 NBL[1]_6 NBL[2]_6 NBL[3]_6 NCORED00_192
+  NCORED01_194 NCORED10_196 NCORED11_198 NCORED20_200 NCORED21_202
+  NCORED30_204 NCORED31_206 Q0_6 Q1_6 Q2_6 Q3_6 VDDC0_6 VDDC1_6 VDDC2_6
+  VDDC3_6 VDDCE_6 VDDPE_6 VNWC_7 VPW_6 VSS_6 VSSE WEN0_6 WEN1_6 WL[0] WL[1]
+  gf12lp_1rw_lg12_w32_bitCC4_MB
XMEM_L_COL_7 BL[0]_7 BL[1]_7 BL[2]_7 BL[3]_7 CORED00_208 CORED01_210
+  CORED10_212 CORED11_214 CORED20_216 CORED21_218 CORED30_220 CORED31_222
+  D0_7 D1_7 WL[0] WL[1] NBL[0]_7 NBL[1]_7 NBL[2]_7 NBL[3]_7 NCORED00_224
+  NCORED01_226 NCORED10_228 NCORED11_230 NCORED20_232 NCORED21_234
+  NCORED30_236 NCORED31_238 Q0_7 Q1_7 Q2_7 Q3_7 VDDC0_7 VDDC1_7 VDDC2_7
+  VDDC3_7 VDDCE_7 VDDPE_7 VNWC_8 VPW_7 VSS_7 VSSE WEN0_7 WEN1_7 WL[0] WL[1]
+  gf12lp_1rw_lg12_w32_bitCC4_MB
XMEM_L_COL_8 BL[0]_8 BL[1]_8 BL[2]_8 BL[3]_8 CORED00_240 CORED01_242
+  CORED10_244 CORED11_246 CORED20_248 CORED21_250 CORED30_252 CORED31_254
+  D0_8 D1_8 WL[0] WL[1] NBL[0]_8 NBL[1]_8 NBL[2]_8 NBL[3]_8 NCORED00_256
+  NCORED01_258 NCORED10_260 NCORED11_262 NCORED20_264 NCORED21_266
+  NCORED30_268 NCORED31_270 Q0_8 Q1_8 Q2_8 Q3_8 VDDC0_8 VDDC1_8 VDDC2_8
+  VDDC3_8 VDDCE_8 VDDPE_8 VNWC_9 VPW_8 VSS_8 VSSE WEN0_8 WEN1_8 WL[0] WL[1]
+  gf12lp_1rw_lg12_w32_bitCC4_MB
XMEM_L_COL_9 BL[0]_9 BL[1]_9 BL[2]_9 BL[3]_9 CORED00_272 CORED01_274
+  CORED10_276 CORED11_278 CORED20_280 CORED21_282 CORED30_284 CORED31_286
+  D0_9 D1_9 WL[0] WL[1] NBL[0]_9 NBL[1]_9 NBL[2]_9 NBL[3]_9 NCORED00_288
+  NCORED01_290 NCORED10_292 NCORED11_294 NCORED20_296 NCORED21_298
+  NCORED30_300 NCORED31_302 Q0_9 Q1_9 Q2_9 Q3_9 VDDC0_9 VDDC1_9 VDDC2_9
+  VDDC3_9 VDDCE_9 VDDPE_9 VNWC_10 VPW_9 VSS_9 VSSE WEN0_9 WEN1_9 WL[0] WL[1]
+  gf12lp_1rw_lg12_w32_bitCC4_MB
XMEM_L_COL_EDGEL VNWC_0 VNWP_0 VSSE VSSE WL[0] WL[1]
+  gf12lp_1rw_lg12_w32_bitCC4_EDG
XMEM_L_COL_EDGER VNWC_17 VNWP_1 VSSE VSSE WL[0] WL[1]
+  gf12lp_1rw_lg12_w32_bitCC4WD_EDGBL
.ENDS gf12lp_1rw_lg12_w32_bitMEM_2X4L_ROW0
****
.SUBCKT gf12lp_1rw_lg12_w32_bitCC4_TOP_MB BL[0] BL[1] BL[2] BL[3] D0 D1 NBL[0]
+  NBL[1] NBL[2] NBL[3] Q0 Q1 Q2 Q3 VDDC VDDCE VDDPE VNWC VPW VSS VSSE WEN0
+  WEN1
** gf12lp_1rw_lg12_w32_bitCC4_TOP_MB: 12 flat devices **
MI79.MXNPDB I79.NET24 I79.NET_4 VSSE VPW lshnfetpd L=0.022U NF=1 NFIN=2
+  PTWELL=0 P_LA=0 CPP=0.084U FPITCH=0.048U TFIN=0.014U NGCON=1 PLORIENT=0
MI79.MXNPGB I79.NET015 VSSE NBL[0] VPW lshnfetwl L=0.022U NF=1 NFIN=2 PTWELL=0
+  P_LA=0 CPP=0.084U FPITCH=0.048U TFIN=0.014U NGCON=1 PLORIENT=0
MI79.MXP0 I79.NET14 I79.NET_4 VDDC VNWC lshpfetpu L=0.022U NF=1 NFIN=1
+  PTWELL=0 P_LA=0 CPP=0.084U FPITCH=0.048U TFIN=0.014U NGCON=1 PLORIENT=0
MI80.MXNPDB I80.NET24 I80.NET_4 VSSE VPW lshnfetpd L=0.022U NF=1 NFIN=2
+  PTWELL=0 P_LA=0 CPP=0.084U FPITCH=0.048U TFIN=0.014U NGCON=1 PLORIENT=0
MI80.MXNPGB I80.NET015 VSSE NBL[1] VPW lshnfetwl L=0.022U NF=1 NFIN=2 PTWELL=0
+  P_LA=0 CPP=0.084U FPITCH=0.048U TFIN=0.014U NGCON=1 PLORIENT=0
MI80.MXP0 I80.NET14 I80.NET_4 VDDC VNWC lshpfetpu L=0.022U NF=1 NFIN=1
+  PTWELL=0 P_LA=0 CPP=0.084U FPITCH=0.048U TFIN=0.014U NGCON=1 PLORIENT=0
MI81.MXNPDB I81.NET24 I81.NET_4 VSSE VPW lshnfetpd L=0.022U NF=1 NFIN=2
+  PTWELL=0 P_LA=0 CPP=0.084U FPITCH=0.048U TFIN=0.014U NGCON=1 PLORIENT=0
MI81.MXNPGB I81.NET015 VSSE NBL[2] VPW lshnfetwl L=0.022U NF=1 NFIN=2 PTWELL=0
+  P_LA=0 CPP=0.084U FPITCH=0.048U TFIN=0.014U NGCON=1 PLORIENT=0
MI81.MXP0 I81.NET14 I81.NET_4 VDDC VNWC lshpfetpu L=0.022U NF=1 NFIN=1
+  PTWELL=0 P_LA=0 CPP=0.084U FPITCH=0.048U TFIN=0.014U NGCON=1 PLORIENT=0
MI82.MXNPDB I82.NET24 I82.NET_4 VSSE VPW lshnfetpd L=0.022U NF=1 NFIN=2
+  PTWELL=0 P_LA=0 CPP=0.084U FPITCH=0.048U TFIN=0.014U NGCON=1 PLORIENT=0
MI82.MXNPGB I82.NET015 VSSE NBL[3] VPW lshnfetwl L=0.022U NF=1 NFIN=2 PTWELL=0
+  P_LA=0 CPP=0.084U FPITCH=0.048U TFIN=0.014U NGCON=1 PLORIENT=0
MI82.MXP0 I82.NET14 I82.NET_4 VDDC VNWC lshpfetpu L=0.022U NF=1 NFIN=1
+  PTWELL=0 P_LA=0 CPP=0.084U FPITCH=0.048U TFIN=0.014U NGCON=1 PLORIENT=0
.ENDS gf12lp_1rw_lg12_w32_bitCC4_TOP_MB
****
.SUBCKT gf12lp_1rw_lg12_w32_bitMEM_SLICE_CAP_LTOP0 BL[0]_0 BL[0]_1 BL[0]_2
+  BL[0]_3 BL[0]_4 BL[0]_5 BL[0]_6 BL[0]_7 BL[0]_8 BL[0]_9 BL[0]_10 BL[0]_11
+  BL[0]_12 BL[0]_13 BL[0]_14 BL[0]_15 BL[1]_0 BL[1]_1 BL[1]_2 BL[1]_3 BL[1]_4
+  BL[1]_5 BL[1]_6 BL[1]_7 BL[1]_8 BL[1]_9 BL[1]_10 BL[1]_11 BL[1]_12 BL[1]_13
+  BL[1]_14 BL[1]_15 BL[2]_0 BL[2]_1 BL[2]_2 BL[2]_3 BL[2]_4 BL[2]_5 BL[2]_6
+  BL[2]_7 BL[2]_8 BL[2]_9 BL[2]_10 BL[2]_11 BL[2]_12 BL[2]_13 BL[2]_14
+  BL[2]_15 BL[3]_0 BL[3]_1 BL[3]_2 BL[3]_3 BL[3]_4 BL[3]_5 BL[3]_6 BL[3]_7
+  BL[3]_8 BL[3]_9 BL[3]_10 BL[3]_11 BL[3]_12 BL[3]_13 BL[3]_14 BL[3]_15 D0_0
+  D0_1 D0_2 D0_3 D0_4 D0_5 D0_6 D0_7 D0_8 D0_9 D0_10 D0_11 D0_12 D0_13 D0_14
+  D0_15 D1_0 D1_1 D1_2 D1_3 D1_4 D1_5 D1_6 D1_7 D1_8 D1_9 D1_10 D1_11 D1_12
+  D1_13 D1_14 D1_15 NBL[0]_0 NBL[0]_1 NBL[0]_2 NBL[0]_3 NBL[0]_4 NBL[0]_5
+  NBL[0]_6 NBL[0]_7 NBL[0]_8 NBL[0]_9 NBL[0]_10 NBL[0]_11 NBL[0]_12 NBL[0]_13
+  NBL[0]_14 NBL[0]_15 NBL[1]_0 NBL[1]_1 NBL[1]_2 NBL[1]_3 NBL[1]_4 NBL[1]_5
+  NBL[1]_6 NBL[1]_7 NBL[1]_8 NBL[1]_9 NBL[1]_10 NBL[1]_11 NBL[1]_12 NBL[1]_13
+  NBL[1]_14 NBL[1]_15 NBL[2]_0 NBL[2]_1 NBL[2]_2 NBL[2]_3 NBL[2]_4 NBL[2]_5
+  NBL[2]_6 NBL[2]_7 NBL[2]_8 NBL[2]_9 NBL[2]_10 NBL[2]_11 NBL[2]_12 NBL[2]_13
+  NBL[2]_14 NBL[2]_15 NBL[3]_0 NBL[3]_1 NBL[3]_2 NBL[3]_3 NBL[3]_4 NBL[3]_5
+  NBL[3]_6 NBL[3]_7 NBL[3]_8 NBL[3]_9 NBL[3]_10 NBL[3]_11 NBL[3]_12 NBL[3]_13
+  NBL[3]_14 NBL[3]_15 Q0_0 Q0_1 Q0_2 Q0_3 Q0_4 Q0_5 Q0_6 Q0_7 Q0_8 Q0_9 Q0_10
+  Q0_11 Q0_12 Q0_13 Q0_14 Q0_15 Q1_0 Q1_1 Q1_2 Q1_3 Q1_4 Q1_5 Q1_6 Q1_7 Q1_8
+  Q1_9 Q1_10 Q1_11 Q1_12 Q1_13 Q1_14 Q1_15 Q2_0 Q2_1 Q2_2 Q2_3 Q2_4 Q2_5 Q2_6
+  Q2_7 Q2_8 Q2_9 Q2_10 Q2_11 Q2_12 Q2_13 Q2_14 Q2_15 Q3_0 Q3_1 Q3_2 Q3_3 Q3_4
+  Q3_5 Q3_6 Q3_7 Q3_8 Q3_9 Q3_10 Q3_11 Q3_12 Q3_13 Q3_14 Q3_15 VDDPE_0
+  VDDPE_1 VDDPE_2 VDDPE_3 VDDPE_4 VDDPE_5 VDDPE_6 VDDPE_7 VDDPE_8 VDDPE_9
+  VDDPE_10 VDDPE_11 VDDPE_12 VDDPE_13 VDDPE_14 VDDPE_15 VNWC VNWP_0 VNWP_1
+  VPW VSS_0 VSS_1 VSS_2 VSS_3 VSS_4 VSS_5 VSS_6 VSS_7 VSS_8 VSS_9 VSS_10
+  VSS_11 VSS_12 VSS_13 VSS_14 VSS_15 WEN0_0 WEN0_1 WEN0_2 WEN0_3 WEN0_4
+  WEN0_5 WEN0_6 WEN0_7 WEN0_8 WEN0_9 WEN0_10 WEN0_11 WEN0_12 WEN0_13 WEN0_14
+  WEN0_15 WEN1_0 WEN1_1 WEN1_2 WEN1_3 WEN1_4 WEN1_5 WEN1_6 WEN1_7 WEN1_8
+  WEN1_9 WEN1_10 WEN1_11 WEN1_12 WEN1_13 WEN1_14 WEN1_15
** gf12lp_1rw_lg12_w32_bitMEM_SLICE_CAP_LTOP0: 192 flat devices **
XTOP0 BL[0]_0 BL[1]_0 BL[2]_0 BL[3]_0 D0_0 D1_0 NBL[0]_0 NBL[1]_0 NBL[2]_0
+  NBL[3]_0 Q0_0 Q1_0 Q2_0 Q3_0 VNWC VNWC VDDPE_0 VNWC VPW VSS_0 VPW WEN0_0
+  WEN1_0 gf12lp_1rw_lg12_w32_bitCC4_TOP_MB
XTOP1 BL[0]_1 BL[1]_1 BL[2]_1 BL[3]_1 D0_1 D1_1 NBL[0]_1 NBL[1]_1 NBL[2]_1
+  NBL[3]_1 Q0_1 Q1_1 Q2_1 Q3_1 VNWC VNWC VDDPE_1 VNWC VPW VSS_1 VPW WEN0_1
+  WEN1_1 gf12lp_1rw_lg12_w32_bitCC4_TOP_MB
XTOP10 BL[0]_10 BL[1]_10 BL[2]_10 BL[3]_10 D0_10 D1_10 NBL[0]_10 NBL[1]_10
+  NBL[2]_10 NBL[3]_10 Q0_10 Q1_10 Q2_10 Q3_10 VNWC VNWC VDDPE_10 VNWC VPW
+  VSS_10 VPW WEN0_10 WEN1_10 gf12lp_1rw_lg12_w32_bitCC4_TOP_MB
XTOP11 BL[0]_11 BL[1]_11 BL[2]_11 BL[3]_11 D0_11 D1_11 NBL[0]_11 NBL[1]_11
+  NBL[2]_11 NBL[3]_11 Q0_11 Q1_11 Q2_11 Q3_11 VNWC VNWC VDDPE_11 VNWC VPW
+  VSS_11 VPW WEN0_11 WEN1_11 gf12lp_1rw_lg12_w32_bitCC4_TOP_MB
XTOP12 BL[0]_12 BL[1]_12 BL[2]_12 BL[3]_12 D0_12 D1_12 NBL[0]_12 NBL[1]_12
+  NBL[2]_12 NBL[3]_12 Q0_12 Q1_12 Q2_12 Q3_12 VNWC VNWC VDDPE_12 VNWC VPW
+  VSS_12 VPW WEN0_12 WEN1_12 gf12lp_1rw_lg12_w32_bitCC4_TOP_MB
XTOP13 BL[0]_13 BL[1]_13 BL[2]_13 BL[3]_13 D0_13 D1_13 NBL[0]_13 NBL[1]_13
+  NBL[2]_13 NBL[3]_13 Q0_13 Q1_13 Q2_13 Q3_13 VNWC VNWC VDDPE_13 VNWC VPW
+  VSS_13 VPW WEN0_13 WEN1_13 gf12lp_1rw_lg12_w32_bitCC4_TOP_MB
XTOP14 BL[0]_14 BL[1]_14 BL[2]_14 BL[3]_14 D0_14 D1_14 NBL[0]_14 NBL[1]_14
+  NBL[2]_14 NBL[3]_14 Q0_14 Q1_14 Q2_14 Q3_14 VNWC VNWC VDDPE_14 VNWC VPW
+  VSS_14 VPW WEN0_14 WEN1_14 gf12lp_1rw_lg12_w32_bitCC4_TOP_MB
XTOP15 BL[0]_15 BL[1]_15 BL[2]_15 BL[3]_15 D0_15 D1_15 NBL[0]_15 NBL[1]_15
+  NBL[2]_15 NBL[3]_15 Q0_15 Q1_15 Q2_15 Q3_15 VNWC VNWC VDDPE_15 VNWC VPW
+  VSS_15 VPW WEN0_15 WEN1_15 gf12lp_1rw_lg12_w32_bitCC4_TOP_MB
XTOP2 BL[0]_2 BL[1]_2 BL[2]_2 BL[3]_2 D0_2 D1_2 NBL[0]_2 NBL[1]_2 NBL[2]_2
+  NBL[3]_2 Q0_2 Q1_2 Q2_2 Q3_2 VNWC VNWC VDDPE_2 VNWC VPW VSS_2 VPW WEN0_2
+  WEN1_2 gf12lp_1rw_lg12_w32_bitCC4_TOP_MB
XTOP3 BL[0]_3 BL[1]_3 BL[2]_3 BL[3]_3 D0_3 D1_3 NBL[0]_3 NBL[1]_3 NBL[2]_3
+  NBL[3]_3 Q0_3 Q1_3 Q2_3 Q3_3 VNWC VNWC VDDPE_3 VNWC VPW VSS_3 VPW WEN0_3
+  WEN1_3 gf12lp_1rw_lg12_w32_bitCC4_TOP_MB
XTOP4 BL[0]_4 BL[1]_4 BL[2]_4 BL[3]_4 D0_4 D1_4 NBL[0]_4 NBL[1]_4 NBL[2]_4
+  NBL[3]_4 Q0_4 Q1_4 Q2_4 Q3_4 VNWC VNWC VDDPE_4 VNWC VPW VSS_4 VPW WEN0_4
+  WEN1_4 gf12lp_1rw_lg12_w32_bitCC4_TOP_MB
XTOP5 BL[0]_5 BL[1]_5 BL[2]_5 BL[3]_5 D0_5 D1_5 NBL[0]_5 NBL[1]_5 NBL[2]_5
+  NBL[3]_5 Q0_5 Q1_5 Q2_5 Q3_5 VNWC VNWC VDDPE_5 VNWC VPW VSS_5 VPW WEN0_5
+  WEN1_5 gf12lp_1rw_lg12_w32_bitCC4_TOP_MB
XTOP6 BL[0]_6 BL[1]_6 BL[2]_6 BL[3]_6 D0_6 D1_6 NBL[0]_6 NBL[1]_6 NBL[2]_6
+  NBL[3]_6 Q0_6 Q1_6 Q2_6 Q3_6 VNWC VNWC VDDPE_6 VNWC VPW VSS_6 VPW WEN0_6
+  WEN1_6 gf12lp_1rw_lg12_w32_bitCC4_TOP_MB
XTOP7 BL[0]_7 BL[1]_7 BL[2]_7 BL[3]_7 D0_7 D1_7 NBL[0]_7 NBL[1]_7 NBL[2]_7
+  NBL[3]_7 Q0_7 Q1_7 Q2_7 Q3_7 VNWC VNWC VDDPE_7 VNWC VPW VSS_7 VPW WEN0_7
+  WEN1_7 gf12lp_1rw_lg12_w32_bitCC4_TOP_MB
XTOP8 BL[0]_8 BL[1]_8 BL[2]_8 BL[3]_8 D0_8 D1_8 NBL[0]_8 NBL[1]_8 NBL[2]_8
+  NBL[3]_8 Q0_8 Q1_8 Q2_8 Q3_8 VNWC VNWC VDDPE_8 VNWC VPW VSS_8 VPW WEN0_8
+  WEN1_8 gf12lp_1rw_lg12_w32_bitCC4_TOP_MB
XTOP9 BL[0]_9 BL[1]_9 BL[2]_9 BL[3]_9 D0_9 D1_9 NBL[0]_9 NBL[1]_9 NBL[2]_9
+  NBL[3]_9 Q0_9 Q1_9 Q2_9 Q3_9 VNWC VNWC VDDPE_9 VNWC VPW VSS_9 VPW WEN0_9
+  WEN1_9 gf12lp_1rw_lg12_w32_bitCC4_TOP_MB
.ENDS gf12lp_1rw_lg12_w32_bitMEM_SLICE_CAP_LTOP0
****
.SUBCKT gf12lp_1rw_lg12_w32_bitCC4_BOT_MB BL[0] BL[1] BL[2] BL[3] D0 D1 NBL[0]
+  NBL[1] NBL[2] NBL[3] Q0 Q1 Q2 Q3 VDDC VDDCE VDDPE VNWC VPW VSS VSSE WEN0
+  WEN1
** gf12lp_1rw_lg12_w32_bitCC4_BOT_MB: 12 flat devices **
MI79.MXNPDB I79.NET24 I79.NET_4 VSSE VPW lshnfetpd L=0.022U NF=1 NFIN=2
+  PTWELL=0 P_LA=0 CPP=0.084U FPITCH=0.048U TFIN=0.014U NGCON=1 PLORIENT=0
MI79.MXNPGB I79.NET015 VSSE NBL[0] VPW lshnfetwl L=0.022U NF=1 NFIN=2 PTWELL=0
+  P_LA=0 CPP=0.084U FPITCH=0.048U TFIN=0.014U NGCON=1 PLORIENT=0
MI79.MXP0 I79.NET14 I79.NET_4 VDDC VNWC lshpfetpu L=0.022U NF=1 NFIN=1
+  PTWELL=0 P_LA=0 CPP=0.084U FPITCH=0.048U TFIN=0.014U NGCON=1 PLORIENT=0
MI80.MXNPDB I80.NET24 I80.NET_4 VSSE VPW lshnfetpd L=0.022U NF=1 NFIN=2
+  PTWELL=0 P_LA=0 CPP=0.084U FPITCH=0.048U TFIN=0.014U NGCON=1 PLORIENT=0
MI80.MXNPGB I80.NET015 VSSE NBL[1] VPW lshnfetwl L=0.022U NF=1 NFIN=2 PTWELL=0
+  P_LA=0 CPP=0.084U FPITCH=0.048U TFIN=0.014U NGCON=1 PLORIENT=0
MI80.MXP0 I80.NET14 I80.NET_4 VDDC VNWC lshpfetpu L=0.022U NF=1 NFIN=1
+  PTWELL=0 P_LA=0 CPP=0.084U FPITCH=0.048U TFIN=0.014U NGCON=1 PLORIENT=0
MI81.MXNPDB I81.NET24 I81.NET_4 VSSE VPW lshnfetpd L=0.022U NF=1 NFIN=2
+  PTWELL=0 P_LA=0 CPP=0.084U FPITCH=0.048U TFIN=0.014U NGCON=1 PLORIENT=0